Circuit: * C:\Users\Tuan Phan\Desktop\Spring 2018\6.013\Project\Dickson_voltage_multiplier.asc

.OP point found by inspection.

Date: Mon Apr 23 13:53:44 2018
Total elapsed time: 0.272 seconds.

tnom = 27
temp = 27
method = modified trap
totiter = 60162
traniter = 60162
tranpoints = 30082
accept = 20130
rejected = 9952
matrix size = 12
fillins = 0
solver = Normal
Matrix Compiler1:      31 opcodes  0.2/[0.1]/0.2
Matrix Compiler2:      71 opcodes  0.1/[0.1]/0.2


